<?xml version="1.0" encoding="UTF-8"?>

<!-- generated on 2026-02-27T03:31:58.409915+05:30 by Eclipse SUMO netedit 1.26.0
-->

<additional xmlns:xsi="http://www.w3.org/2001/XMLSchema-instance" xsi:noNamespaceSchemaLocation="http://sumo.dlr.de/xsd/additional_file.xsd">
    <!-- StoppingPlaces -->
    <parkingArea id="pa_0" lane="E4_0" startPos="8.58" endPos="18.58" angle="90.00" roadsideCapacity="4" width="2.50"/>
    <parkingArea id="pa_1" lane="-E4_0" startPos="11.49" endPos="21.49" angle="90.00" roadsideCapacity="4" width="2.50"/>
    <parkingArea id="pa_2" lane="E3_0" startPos="3.14" endPos="10.64" angle="90.00" roadsideCapacity="3" width="2.50"/>
    <parkingArea id="pa_3" lane="E3.24_0" startPos="0.15" endPos="5.15" angle="90.00" roadsideCapacity="2" width="2.50"/>
</additional>
