<?xml version="1.0" encoding="UTF-8"?>

<!-- generated on 2026-02-27T19:06:38.529339+05:30 by Eclipse SUMO netedit 1.26.0
-->

<routes xmlns:xsi="http://www.w3.org/2001/XMLSchema-instance" xsi:noNamespaceSchemaLocation="http://sumo.dlr.de/xsd/routes_file.xsd">
    <!-- Routes -->
    <route id="r_2" edges="E2.28 E3 -E3 E2">
        <stop parkingArea="pa_2" duration="60.00"/>
    </route>
    <!-- Vehicles, persons and containers (sorted by depart) -->
    <flow id="f_0" begin="0.00" end="3600.00" perHour="1800.00" route="r_2"/>
</routes>
