<?xml version="1.0" encoding="UTF-8"?>

<!-- generated on 2026-02-27T05:53:29.920007+05:30 by Eclipse SUMO netedit 1.26.0
<neteditConfiguration xmlns:xsi="http://www.w3.org/2001/XMLSchema-instance" xsi:noNamespaceSchemaLocation="http://sumo.dlr.de/xsd/neteditConfiguration.xsd">

    <input>
        <sumocfg-file value="C:\Users\Abdul Muizz\Desktop\Coding\SIPS\SUMO\parking_sumo.sumocfg"/>
        <additional-files value="C:\Users\Abdul Muizz\Desktop\Coding\SIPS\SUMO\parking.add.xml"/>
        <route-files value="C:\Users\Abdul Muizz\Desktop\Coding\SIPS\SUMO\parking.rou.xml"/>
        <sumo-net-file value="C:\Users\Abdul Muizz\Desktop\Coding\SIPS\SUMO\parking_network.net.xml"/>
    </input>

    <output>
        <output-file value="C:\Users\Abdul Muizz\Desktop\Coding\SIPS\SUMO\parking_network.net.xml"/>
    </output>

    <processing>
        <offset.disable-normalization value="true"/>
        <lefthand value="true"/>
    </processing>

    <junctions>
        <no-turnarounds value="true"/>
    </junctions>

    <netedit>
        <new-network value="false"/>
    </netedit>

</neteditConfiguration>
-->

<net version="1.20" junctionCornerDetail="5" lefthand="true" limitTurnSpeed="5.50" xmlns:xsi="http://www.w3.org/2001/XMLSchema-instance" xsi:noNamespaceSchemaLocation="http://sumo.dlr.de/xsd/net_file.xsd">

    <location netOffset="0.00,-0.00" convBoundary="-37.83,15.24,31.69,52.14" origBoundary="10000000000.00,10000000000.00,-10000000000.00,-10000000000.00" projParameter="!"/>

    <edge id=":J10_0" function="internal">
        <lane id=":J10_0_0" index="0" speed="3.65" length="4.67" shape="26.50,39.56 27.71,38.78 28.12,37.98 27.73,37.18 26.54,36.36"/>
    </edge>
    <edge id=":J7_0" function="internal">
        <lane id=":J7_0_0" index="0" speed="13.89" length="9.39" shape="-4.94,14.06 -14.33,13.97"/>
    </edge>
    <edge id=":J7_1" function="internal">
        <lane id=":J7_1_0" index="0" speed="6.08" length="7.76" shape="-4.94,14.06 -7.70,14.24 -9.67,14.81 -10.86,15.77 -11.26,17.12"/>
    </edge>
    <edge id=":J7_2" function="internal">
        <lane id=":J7_2_0" index="0" speed="6.09" length="7.75" shape="-8.06,17.14 -8.44,15.78 -9.62,14.80 -11.58,14.20 -14.33,13.97"/>
    </edge>
    <edge id=":J8_0" function="internal">
        <lane id=":J8_0_0" index="0" speed="3.65" length="4.67" shape="-11.56,52.12 -10.77,53.33 -9.98,53.74 -9.17,53.35 -8.36,52.16"/>
    </edge>
    <edge id=":J9_0" function="internal">
        <lane id=":J9_0_0" index="0" speed="13.89" length="6.38" shape="-11.38,34.24 -11.43,40.62"/>
    </edge>
    <edge id=":J9_1" function="internal">
        <lane id=":J9_1_0" index="0" speed="6.09" length="2.76" shape="-11.38,34.24 -11.09,36.33 -10.76,36.89"/>
    </edge>
    <edge id=":J9_2" function="internal">
        <lane id=":J9_2_0" index="0" speed="3.65" length="1.44" shape="-11.38,34.24 -10.59,35.45"/>
    </edge>
    <edge id=":J9_7" function="internal">
        <lane id=":J9_7_0" index="0" speed="6.09" length="4.97" shape="-10.76,36.89 -10.20,37.83 -8.71,38.75 -6.61,39.08"/>
    </edge>
    <edge id=":J9_8" function="internal">
        <lane id=":J9_8_0" index="0" speed="3.65" length="3.23" shape="-10.59,35.45 -9.79,35.85 -8.99,35.46 -8.18,34.27"/>
    </edge>
    <edge id=":J9_3" function="internal">
        <lane id=":J9_3_0" index="0" speed="3.92" length="2.60" shape="-6.57,35.88 -7.27,35.77 -7.78,35.46 -8.08,34.96 -8.18,34.27"/>
    </edge>
    <edge id=":J9_4" function="internal">
        <lane id=":J9_4_0" index="0" speed="6.08" length="7.76" shape="-6.57,35.88 -8.68,36.15 -10.19,37.03 -11.11,38.52 -11.43,40.62"/>
    </edge>
    <edge id=":J9_5" function="internal">
        <lane id=":J9_5_0" index="0" speed="3.90" length="2.59" shape="-8.24,40.66 -8.13,39.96 -7.82,39.46 -7.32,39.17 -6.61,39.08"/>
    </edge>
    <edge id=":J9_6" function="internal">
        <lane id=":J9_6_0" index="0" speed="13.89" length="6.39" shape="-8.24,40.66 -8.18,34.27"/>
    </edge>

    <edge id="-E3" from="J9" to="J7" priority="0">
        <lane id="-E3_0" index="0" speed="13.89" length="17.12" shape="-8.18,34.27 -8.06,17.14"/>
    </edge>
    <edge id="-E3.24" from="J8" to="J9" priority="-1">
        <lane id="-E3.24_0" index="0" speed="13.89" length="11.50" shape="-8.36,52.16 -8.24,40.66"/>
    </edge>
    <edge id="-E4" from="J10" to="J9" priority="-1">
        <lane id="-E4_0" index="0" speed="13.89" length="33.11" shape="26.54,36.36 -6.57,35.88"/>
    </edge>
    <edge id="E2" from="J7" to="J5" priority="-1">
        <lane id="E2_0" index="0" speed="13.89" length="23.48" shape="-14.33,13.97 -37.81,13.64"/>
    </edge>
    <edge id="E2.28" from="J6" to="J7" priority="-1">
        <lane id="E2.28_0" index="0" speed="13.89" length="36.64" shape="31.70,14.32 -4.94,14.06"/>
    </edge>
    <edge id="E3" from="J7" to="J9" priority="-1">
        <lane id="E3_0" index="0" speed="13.89" length="17.12" shape="-11.26,17.12 -11.38,34.24"/>
    </edge>
    <edge id="E3.24" from="J9" to="J8" priority="-1">
        <lane id="E3.24_0" index="0" speed="13.89" length="11.50" shape="-11.43,40.62 -11.56,52.12"/>
    </edge>
    <edge id="E4" from="J9" to="J10" priority="-1">
        <lane id="E4_0" index="0" speed="13.89" length="33.11" shape="-6.61,39.08 26.50,39.56"/>
    </edge>

    <junction id="J10" type="priority" x="26.52" y="37.96" incLanes="E4_0" intLanes=":J10_0_0" shape="26.52,37.96 26.47,41.16 26.52,37.96">
        <request index="0" response="0" foes="0" cont="0"/>
    </junction>
    <junction id="J5" type="dead_end" x="-37.83" y="15.24" incLanes="E2_0" intLanes="" shape="-37.79,12.04 -37.83,15.24"/>
    <junction id="J6" type="dead_end" x="31.69" y="15.92" incLanes="" intLanes="" shape="31.69,15.92 31.71,12.72"/>
    <junction id="J7" type="priority" x="-9.65" y="15.63" incLanes="E2.28_0 -E3_0" intLanes=":J7_0_0 :J7_1_0 :J7_2_0" shape="-4.93,12.46 -4.95,15.66 -5.78,15.82 -6.08,16.03 -6.29,16.32 -6.42,16.69 -6.46,17.15 -12.86,17.11 -13.02,16.26 -13.23,15.96 -13.52,15.75 -13.89,15.61 -14.35,15.56 -14.31,12.37">
        <request index="0" response="100" foes="100" cont="0"/>
        <request index="1" response="100" foes="100" cont="0"/>
        <request index="2" response="000" foes="011" cont="0"/>
    </junction>
    <junction id="J8" type="priority" x="-9.96" y="52.14" incLanes="E3.24_0" intLanes=":J8_0_0" shape="-9.96,52.14 -13.16,52.11 -9.96,52.14">
        <request index="0" response="0" foes="0" cont="0"/>
    </junction>
    <junction id="J9" type="priority" x="-9.80" y="37.43" incLanes="E3_0 -E4_0 -E3.24_0" intLanes=":J9_0_0 :J9_7_0 :J9_8_0 :J9_3_0 :J9_4_0 :J9_5_0 :J9_6_0" shape="-12.98,34.23 -6.58,34.28 -6.64,40.68 -13.03,40.61" radius="0.00">
        <request index="0" response="0000000" foes="0010000" cont="0"/>
        <request index="1" response="1100000" foes="1110000" cont="1"/>
        <request index="2" response="1001000" foes="1001000" cont="1"/>
        <request index="3" response="1000000" foes="1000100" cont="0"/>
        <request index="4" response="1000011" foes="1000011" cont="0"/>
        <request index="5" response="0000000" foes="0000010" cont="0"/>
        <request index="6" response="0000000" foes="0011110" cont="0"/>
    </junction>

    <junction id=":J9_7_0" type="internal" x="-10.76" y="36.89" incLanes=":J9_1_0 -E3.24_0" intLanes=":J9_4_0 :J9_5_0 :J9_6_0"/>
    <junction id=":J9_8_0" type="internal" x="-10.59" y="35.45" incLanes=":J9_2_0 -E3.24_0 -E4_0" intLanes=":J9_3_0 :J9_6_0"/>

    <connection from="-E3" to="E2" fromLane="0" toLane="0" via=":J7_2_0" dir="r" state="M"/>
    <connection from="-E3.24" to="E4" fromLane="0" toLane="0" via=":J9_5_0" dir="l" state="M"/>
    <connection from="-E3.24" to="-E3" fromLane="0" toLane="0" via=":J9_6_0" dir="s" state="M"/>
    <connection from="-E4" to="-E3" fromLane="0" toLane="0" via=":J9_3_0" dir="l" state="m"/>
    <connection from="-E4" to="E3.24" fromLane="0" toLane="0" via=":J9_4_0" dir="r" state="m"/>
    <connection from="E2.28" to="E2" fromLane="0" toLane="0" via=":J7_0_0" dir="s" state="m"/>
    <connection from="E2.28" to="E3" fromLane="0" toLane="0" via=":J7_1_0" dir="r" state="m"/>
    <connection from="E3" to="E3.24" fromLane="0" toLane="0" via=":J9_0_0" dir="s" state="M"/>
    <connection from="E3" to="E4" fromLane="0" toLane="0" via=":J9_1_0" dir="r" state="m"/>
    <connection from="E3" to="-E3" fromLane="0" toLane="0" via=":J9_2_0" dir="T" state="m"/>
    <connection from="E3.24" to="-E3.24" fromLane="0" toLane="0" via=":J8_0_0" dir="T" state="M"/>
    <connection from="E4" to="-E4" fromLane="0" toLane="0" via=":J10_0_0" dir="T" state="M"/>

    <connection from=":J10_0" to="-E4" fromLane="0" toLane="0" dir="T" state="M"/>
    <connection from=":J7_0" to="E2" fromLane="0" toLane="0" dir="s" state="M"/>
    <connection from=":J7_1" to="E3" fromLane="0" toLane="0" dir="r" state="M"/>
    <connection from=":J7_2" to="E2" fromLane="0" toLane="0" dir="r" state="M"/>
    <connection from=":J8_0" to="-E3.24" fromLane="0" toLane="0" dir="T" state="M"/>
    <connection from=":J9_0" to="E3.24" fromLane="0" toLane="0" dir="s" state="M"/>
    <connection from=":J9_1" to="E4" fromLane="0" toLane="0" via=":J9_7_0" dir="r" state="m"/>
    <connection from=":J9_7" to="E4" fromLane="0" toLane="0" dir="r" state="M"/>
    <connection from=":J9_2" to="-E3" fromLane="0" toLane="0" via=":J9_8_0" dir="T" state="m"/>
    <connection from=":J9_8" to="-E3" fromLane="0" toLane="0" dir="T" state="M"/>
    <connection from=":J9_3" to="-E3" fromLane="0" toLane="0" dir="l" state="M"/>
    <connection from=":J9_4" to="E3.24" fromLane="0" toLane="0" dir="r" state="M"/>
    <connection from=":J9_5" to="E4" fromLane="0" toLane="0" dir="l" state="M"/>
    <connection from=":J9_6" to="-E3" fromLane="0" toLane="0" dir="s" state="M"/>

</net>
