<?xml version="1.0" encoding="UTF-8"?>

<!-- generated on 2026-02-27T05:53:29.925609+05:30 by Eclipse SUMO sumo 1.26.0
-->

<sumoConfiguration xmlns:xsi="http://www.w3.org/2001/XMLSchema-instance" xsi:noNamespaceSchemaLocation="http://sumo.dlr.de/xsd/sumoConfiguration.xsd">

    <input>
        <net-file value="parking_network.net.xml"/>
        <route-files value="parking.rou.xml"/>
        <additional-files value="parking.add.xml"/>
    </input>

</sumoConfiguration>
